<edges>

    <edge id="westJunction" from="west" to="junction" priority="1" numLanes="1" speed="55.56" spreadType="center"/>
    <edge id="junctionNorth" from="junction" to="north" priority="1" numLanes="1" speed="55.56" spreadType="center"/>
    <edge id="junctionEast" from="junction" to="east" priority="1" numLanes="1" speed="55.56" spreadType="center"/>
    <edge id="southJunction" from="south" to="junction" priority="1" numLanes="2" speed="55.56" spreadType="center"/>

</edges>