<?xml version="1.0" encoding="UTF-8"?>

<!-- generated on 2024-11-12 13:07:25 by Eclipse SUMO netedit Version 1.20.0
<configuration xmlns:xsi="http://www.w3.org/2001/XMLSchema-instance" xsi:noNamespaceSchemaLocation="http://sumo.dlr.de/xsd/neteditConfiguration.xsd">

    <input>
        <sumo-net-file value="/Users/finn/Code/CausalKnowledgeTransfer-4-SafeRL/nets/2lane_unprotected_right/2lane_unprotected_right.net.xml"/>
    </input>

    <processing>
        <geometry.min-radius.fix.railways value="false"/>
        <geometry.max-grade.fix value="false"/>
        <offset.disable-normalization value="true"/>
        <lefthand value="0"/>
    </processing>

    <junctions>
        <no-turnarounds value="true"/>
        <junctions.corner-detail value="5"/>
        <junctions.limit-turn-speed value="5.50"/>
        <rectangular-lane-cut value="0"/>
    </junctions>

    <pedestrian>
        <walkingareas value="0"/>
    </pedestrian>

</configuration>
-->

<additional xmlns:xsi="http://www.w3.org/2001/XMLSchema-instance" xsi:noNamespaceSchemaLocation="http://sumo.dlr.de/xsd/additional_file.xsd">
    <tlLogic id="trafficLight" type="static" programID="0" offset="0">
        <phase duration="27" state="rrGG" name="safe"/>
        <phase duration="3"  state="rrGG" name="yellowAfterSafe"/>
        <phase duration="27" state="GrGG" name="unprotected"/>
        <phase duration="3"  state="yryy" name="yellowAfterUnprotected"/>
        <phase duration="27" state="GGrr" name="protected"/>
        <phase duration="3"  state="yyrr" name="yellowAfterProtected"/>
    </tlLogic>
</additional>
