<?xml version="1.0" encoding="UTF-8"?>

<routes xmlns:xsi="http://www.w3.org/2001/XMLSchema-instance" xsi:noNamespaceSchemaLocation="http://sumo.dlr.de/xsd/routes_file.xsd">
    <vehicle id="southEast" type="car30" route="0" depart="0" departLane="best" departPos="base" departSpeed="last">
         <param key="has.friction.device" value="true"/>
    </vehicle>
    <vehicle id="southNorth" type="car30" route="1" depart="0" departLane="best" departPos="base" departSpeed="last">
         <param key="has.friction.device" value="true"/>
    </vehicle>
    <vehicle id="westEast" type="car30" route="2" depart="0" departLane="best" departPos="base" departSpeed="last">
         <param key="has.friction.device" value="true"/>
    </vehicle>
</routes>
