<?xml version="1.0" encoding="UTF-8"?>

<!-- generated on 2024-08-15 14:54:47.045358 by findAllRoutes.py UNKNOWN
  options: -n simple_unprotected_right.net.xml -o simple_unprotected_right.rou.xml -s southJunction,westJunction -t junctionEast,junctionNorth
-->

<routes xmlns:xsi="http://www.w3.org/2001/XMLSchema-instance" xsi:noNamespaceSchemaLocation="http://sumo.dlr.de/xsd/routes_file.xsd">
    <route id="0" edges="southJunction junctionEast"/>
    <route id="1" edges="southJunction junctionNorth"/>
    <route id="2" edges="westJunction junctionEast"/>
</routes>
