<?xml version="1.0" encoding="UTF-8"?>

<!-- generated on 2024-08-15 14:30:55 by Eclipse SUMO netconvert Version 1.20.0
<configuration xmlns:xsi="http://www.w3.org/2001/XMLSchema-instance" xsi:noNamespaceSchemaLocation="http://sumo.dlr.de/xsd/netconvertConfiguration.xsd">

    <input>
        <node-files value="netconfig/nodes.nod.xml"/>
        <edge-files value="netconfig/edges.edg.xml"/>
        <connection-files value="netconfig/connections.con.xml"/>
        <tllogic-files value="netconfig/tllogics.tll.xml"/>
    </input>

    <output>
        <output-file value="simple_unprotected_right.net.xml"/>
    </output>

</configuration>
-->

<net version="1.20" junctionCornerDetail="5" limitTurnSpeed="5.50" xmlns:xsi="http://www.w3.org/2001/XMLSchema-instance" xsi:noNamespaceSchemaLocation="http://sumo.dlr.de/xsd/net_file.xsd">

    <location netOffset="500.00,500.00" convBoundary="0.00,0.00,1000.00,1000.00" origBoundary="-500.00,-500.00,500.00,500.00" projParameter="!"/>

    <edge id=":junction_0" function="internal">
        <lane id=":junction_0_0" index="0" speed="6.51" length="9.03" shape="501.60,494.40 501.95,496.85 503.00,498.60 504.75,499.65 507.20,500.00"/>
    </edge>
    <edge id=":junction_1" function="internal">
        <lane id=":junction_1_0" index="0" speed="50.00" length="11.35" shape="498.40,494.40 498.65,497.83 499.20,500.25 499.75,502.54 500.00,505.60"/>
    </edge>
    <edge id=":junction_2" function="internal">
        <lane id=":junction_2_0" index="0" speed="50.00" length="14.40" shape="492.80,500.00 507.20,500.00"/>
    </edge>

    <edge id="junctionEast" from="junction" to="east" priority="1" spreadType="center">
        <lane id="junctionEast_0" index="0" speed="50.00" length="492.80" shape="507.20,500.00 1000.00,500.00"/>
    </edge>
    <edge id="junctionNorth" from="junction" to="north" priority="1" spreadType="center">
        <lane id="junctionNorth_0" index="0" speed="50.00" length="494.40" shape="500.00,505.60 500.00,1000.00"/>
    </edge>
    <edge id="southJunction" from="south" to="junction" priority="1" spreadType="center">
        <lane id="southJunction_0" index="0" speed="50.00" length="494.40" shape="501.60,-0.00 501.60,494.40"/>
        <lane id="southJunction_1" index="1" speed="50.00" length="494.40" shape="498.40,-0.00 498.40,494.40"/>
    </edge>
    <edge id="westJunction" from="west" to="junction" priority="1" spreadType="center">
        <lane id="westJunction_0" index="0" speed="50.00" length="492.80" shape="-0.00,500.00 492.80,500.00"/>
    </edge>

    <tlLogic id="trafficLight" type="static" programID="0" offset="0">
        <phase duration="27" state="rrG" name="safe"/>
        <phase duration="3"  state="rrG" name="yellowAfterSafe"/>
        <phase duration="27" state="GrG" name="unprotected"/>
        <phase duration="3"  state="yry" name="yellowAfterUnprotected"/>
        <phase duration="27" state="GGr" name="protected"/>
        <phase duration="3"  state="yyr" name="yellowAfterProtected"/>
    </tlLogic>

    <junction id="east" type="dead_end" x="1000.00" y="500.00" incLanes="junctionEast_0" intLanes="" shape="1000.00,498.40 1000.00,501.60" fringe="outer"/>
    <junction id="junction" type="traffic_light_unregulated" x="500.00" y="500.00" incLanes="southJunction_0 southJunction_1 westJunction_0" intLanes=":junction_0_0 :junction_1_0 :junction_2_0" shape="498.40,505.60 501.60,505.60 502.22,503.38 503.00,502.60 504.09,502.04 505.49,501.71 507.20,501.60 507.20,498.40 504.98,497.96 504.20,497.40 503.64,496.62 503.31,495.62 503.20,494.40 496.80,494.40 496.36,496.62 495.80,497.40 495.02,497.96 494.02,498.29 492.80,498.40 492.80,501.60 495.91,502.04 497.00,502.60 497.78,503.38 498.24,504.38"/>
    <junction id="north" type="dead_end" x="500.00" y="1000.00" incLanes="junctionNorth_0" intLanes="" shape="501.60,1000.00 498.40,1000.00" fringe="outer"/>
    <junction id="south" type="dead_end" x="500.00" y="0.00" incLanes="" intLanes="" shape="496.80,-0.00 503.20,-0.00" fringe="outer"/>
    <junction id="west" type="dead_end" x="0.00" y="500.00" incLanes="" intLanes="" shape="-0.00,501.60 -0.00,498.40" fringe="outer"/>

    <connection from="southJunction" to="junctionEast" fromLane="0" toLane="0" via=":junction_0_0" tl="trafficLight" linkIndex="0" dir="r" state="O"/>
    <connection from="southJunction" to="junctionNorth" fromLane="1" toLane="0" via=":junction_1_0" tl="trafficLight" linkIndex="1" dir="s" state="O"/>
    <connection from="westJunction" to="junctionEast" fromLane="0" toLane="0" via=":junction_2_0" tl="trafficLight" linkIndex="2" dir="s" state="O"/>

    <connection from=":junction_0" to="junctionEast" fromLane="0" toLane="0" dir="r" state="M"/>
    <connection from=":junction_1" to="junctionNorth" fromLane="0" toLane="0" dir="s" state="M"/>
    <connection from=":junction_2" to="junctionEast" fromLane="0" toLane="0" dir="s" state="M"/>

</net>
